<?xml version="1.0" encoding="UTF-8"?>

<!-- generated on 06/06/20 15:54:07 by Eclipse SUMO Version 1.3.1
<configuration xmlns:xsi="http://www.w3.org/2001/XMLSchema-instance" xsi:noNamespaceSchemaLocation="http://sumo.dlr.de/xsd/sumoConfiguration.xsd">

    <input>
        <net-file value="./Project/ramp.net.xml"/>
        <route-files value="./Project/ramp.rou.xml"/>
        <additional-files value="./Project/ramp.add.xml"/>
    </input>

    <time>
        <begin value="0"/>
        <end value="9300"/>
    </time>

    <processing>
        <emergencydecel.warning-threshold value="1.2"/>
    </processing>

    <report>
        <verbose value="true"/>
        <no-step-log value="true"/>
    </report>

    <traci_server>
        <remote-port value="51795"/>
    </traci_server>

    <random_number>
        <seed value="76073565"/>
    </random_number>

    <gui_only>
        <gui-settings-file value="./Project/jiaoke.xml"/>
        <quit-on-end value="true"/>
        <start value="true"/>
    </gui_only>

</configuration>
-->

<e3Detector xmlns:xsi="http://www.w3.org/2001/XMLSchema-instance" xsi:noNamespaceSchemaLocation="http://sumo.dlr.de/xsd/det_e3_file.xsd">
   <interval begin="0.00" end="60.00" id="multi_eval" meanTravelTime="-1.00" meanOverlapTravelTime="-1.00" meanSpeed="-1.00" meanHaltsPerVehicle="-1.00" meanTimeLoss="-1.00" vehicleSum="0" meanSpeedWithin="19.32" meanHaltsPerVehicleWithin="0.00" meanDurationWithin="19.65" vehicleSumWithin="38" meanIntervalSpeedWithin="19.32" meanIntervalHaltsPerVehicleWithin="0.00" meanIntervalDurationWithin="19.65" meanTimeLossWithin="0.88"/>
   <interval begin="60.00" end="120.00" id="multi_eval" meanTravelTime="-1.00" meanOverlapTravelTime="-1.00" meanSpeed="-1.00" meanHaltsPerVehicle="-1.00" meanTimeLoss="-1.00" vehicleSum="0" meanSpeedWithin="17.99" meanHaltsPerVehicleWithin="0.00" meanDurationWithin="46.44" vehicleSumWithin="112" meanIntervalSpeedWithin="18.00" meanIntervalHaltsPerVehicleWithin="0.00" meanIntervalDurationWithin="39.77" meanTimeLossWithin="4.15"/>
   <interval begin="120.00" end="180.00" id="multi_eval" meanTravelTime="118.07" meanOverlapTravelTime="118.31" meanSpeed="20.12" meanHaltsPerVehicle="0.00" meanTimeLoss="5.35" vehicleSum="30" meanSpeedWithin="17.31" meanHaltsPerVehicleWithin="0.00" meanDurationWithin="62.09" vehicleSumWithin="160" meanIntervalSpeedWithin="17.31" meanIntervalHaltsPerVehicleWithin="0.00" meanIntervalDurationWithin="45.23" meanTimeLossWithin="6.92"/>
   <interval begin="180.00" end="240.00" id="multi_eval" meanTravelTime="136.47" meanOverlapTravelTime="136.72" meanSpeed="17.52" meanHaltsPerVehicle="0.00" meanTimeLoss="21.39" vehicleSum="57" meanSpeedWithin="17.32" meanHaltsPerVehicleWithin="0.00" meanDurationWithin="71.38" vehicleSumWithin="174" meanIntervalSpeedWithin="17.25" meanIntervalHaltsPerVehicleWithin="0.00" meanIntervalDurationWithin="48.00" meanTimeLossWithin="7.34"/>
   <interval begin="240.00" end="300.00" id="multi_eval" meanTravelTime="136.94" meanOverlapTravelTime="137.20" meanSpeed="17.05" meanHaltsPerVehicle="0.00" meanTimeLoss="22.38" vehicleSum="83" meanSpeedWithin="17.41" meanHaltsPerVehicleWithin="0.00" meanDurationWithin="67.55" vehicleSumWithin="169" meanIntervalSpeedWithin="17.35" meanIntervalHaltsPerVehicleWithin="0.00" meanIntervalDurationWithin="46.41" meanTimeLossWithin="6.66"/>
   <interval begin="300.00" end="360.00" id="multi_eval" meanTravelTime="135.69" meanOverlapTravelTime="135.95" meanSpeed="17.57" meanHaltsPerVehicle="0.00" meanTimeLoss="18.36" vehicleSum="68" meanSpeedWithin="15.15" meanHaltsPerVehicleWithin="0.00" meanDurationWithin="70.31" vehicleSumWithin="175" meanIntervalSpeedWithin="14.68" meanIntervalHaltsPerVehicleWithin="0.00" meanIntervalDurationWithin="47.18" meanTimeLossWithin="4.31"/>
   <interval begin="360.00" end="420.00" id="multi_eval" meanTravelTime="141.62" meanOverlapTravelTime="141.87" meanSpeed="16.02" meanHaltsPerVehicle="0.00" meanTimeLoss="16.05" vehicleSum="63" meanSpeedWithin="14.48" meanHaltsPerVehicleWithin="0.00" meanDurationWithin="75.27" vehicleSumWithin="189" meanIntervalSpeedWithin="14.49" meanIntervalHaltsPerVehicleWithin="0.00" meanIntervalDurationWithin="47.90" meanTimeLossWithin="4.94"/>
   <interval begin="420.00" end="480.00" id="multi_eval" meanTravelTime="150.04" meanOverlapTravelTime="150.29" meanSpeed="15.72" meanHaltsPerVehicle="0.00" meanTimeLoss="14.81" vehicleSum="66" meanSpeedWithin="13.97" meanHaltsPerVehicleWithin="0.00" meanDurationWithin="79.02" vehicleSumWithin="199" meanIntervalSpeedWithin="14.03" meanIntervalHaltsPerVehicleWithin="0.00" meanIntervalDurationWithin="48.48" meanTimeLossWithin="6.05"/>
   <interval begin="480.00" end="540.00" id="multi_eval" meanTravelTime="161.45" meanOverlapTravelTime="161.70" meanSpeed="14.75" meanHaltsPerVehicle="0.00" meanTimeLoss="21.96" vehicleSum="71" meanSpeedWithin="15.56" meanHaltsPerVehicleWithin="0.00" meanDurationWithin="80.64" vehicleSumWithin="205" meanIntervalSpeedWithin="16.23" meanIntervalHaltsPerVehicleWithin="0.00" meanIntervalDurationWithin="49.00" meanTimeLossWithin="9.53"/>
   <interval begin="540.00" end="600.00" id="multi_eval" meanTravelTime="154.42" meanOverlapTravelTime="154.68" meanSpeed="15.45" meanHaltsPerVehicle="0.00" meanTimeLoss="25.57" vehicleSum="89" meanSpeedWithin="16.46" meanHaltsPerVehicleWithin="0.00" meanDurationWithin="75.64" vehicleSumWithin="198" meanIntervalSpeedWithin="16.61" meanIntervalHaltsPerVehicleWithin="0.00" meanIntervalDurationWithin="48.62" meanTimeLossWithin="9.12"/>
   <interval begin="600.00" end="660.00" id="multi_eval" meanTravelTime="146.09" meanOverlapTravelTime="146.36" meanSpeed="16.19" meanHaltsPerVehicle="0.00" meanTimeLoss="28.22" vehicleSum="88" meanSpeedWithin="16.48" meanHaltsPerVehicleWithin="0.00" meanDurationWithin="72.34" vehicleSumWithin="192" meanIntervalSpeedWithin="16.48" meanIntervalHaltsPerVehicleWithin="0.00" meanIntervalDurationWithin="47.79" meanTimeLossWithin="9.20"/>
   <interval begin="660.00" end="720.00" id="multi_eval" meanTravelTime="138.56" meanOverlapTravelTime="138.82" meanSpeed="16.77" meanHaltsPerVehicle="0.00" meanTimeLoss="25.14" vehicleSum="81" meanSpeedWithin="16.66" meanHaltsPerVehicleWithin="0.00" meanDurationWithin="73.94" vehicleSumWithin="191" meanIntervalSpeedWithin="16.74" meanIntervalHaltsPerVehicleWithin="0.00" meanIntervalDurationWithin="47.97" meanTimeLossWithin="8.81"/>
   <interval begin="720.00" end="780.00" id="multi_eval" meanTravelTime="144.02" meanOverlapTravelTime="144.29" meanSpeed="16.49" meanHaltsPerVehicle="0.00" meanTimeLoss="29.19" vehicleSum="84" meanSpeedWithin="17.22" meanHaltsPerVehicleWithin="0.00" meanDurationWithin="73.94" vehicleSumWithin="180" meanIntervalSpeedWithin="17.31" meanIntervalHaltsPerVehicleWithin="0.00" meanIntervalDurationWithin="48.95" meanTimeLossWithin="7.83"/>
   <interval begin="780.00" end="840.00" id="multi_eval" meanTravelTime="137.73" meanOverlapTravelTime="137.99" meanSpeed="17.29" meanHaltsPerVehicle="0.01" meanTimeLoss="23.93" vehicleSum="85" meanSpeedWithin="17.46" meanHaltsPerVehicleWithin="0.01" meanDurationWithin="69.78" vehicleSumWithin="174" meanIntervalSpeedWithin="17.51" meanIntervalHaltsPerVehicleWithin="0.01" meanIntervalDurationWithin="47.11" meanTimeLossWithin="6.55"/>
   <interval begin="840.00" end="900.00" id="multi_eval" meanTravelTime="137.45" meanOverlapTravelTime="137.70" meanSpeed="17.01" meanHaltsPerVehicle="0.06" meanTimeLoss="21.38" vehicleSum="68" meanSpeedWithin="12.63" meanHaltsPerVehicleWithin="0.00" meanDurationWithin="72.92" vehicleSumWithin="178" meanIntervalSpeedWithin="11.29" meanIntervalHaltsPerVehicleWithin="0.00" meanIntervalDurationWithin="47.51" meanTimeLossWithin="4.19"/>
   <interval begin="900.00" end="960.00" id="multi_eval" meanTravelTime="153.16" meanOverlapTravelTime="153.42" meanSpeed="15.13" meanHaltsPerVehicle="0.00" meanTimeLoss="16.49" vehicleSum="43" meanSpeedWithin="11.21" meanHaltsPerVehicleWithin="0.00" meanDurationWithin="85.33" vehicleSumWithin="211" meanIntervalSpeedWithin="10.79" meanIntervalHaltsPerVehicleWithin="0.00" meanIntervalDurationWithin="49.49" meanTimeLossWithin="6.47"/>
</e3Detector>
