<?xml version="1.0" encoding="UTF-8"?>

<!-- generated on 06/06/20 16:09:48 by Eclipse SUMO Version 1.3.1
<configuration xmlns:xsi="http://www.w3.org/2001/XMLSchema-instance" xsi:noNamespaceSchemaLocation="http://sumo.dlr.de/xsd/sumoConfiguration.xsd">

    <input>
        <net-file value="./Project/ramp.net.xml"/>
        <route-files value="./Project/ramp.rou.xml"/>
        <additional-files value="./Project/ramp.add.xml"/>
    </input>

    <time>
        <begin value="0"/>
        <end value="9300"/>
    </time>

    <processing>
        <emergencydecel.warning-threshold value="1.2"/>
    </processing>

    <report>
        <verbose value="true"/>
        <no-step-log value="true"/>
    </report>

    <traci_server>
        <remote-port value="52166"/>
    </traci_server>

    <random_number>
        <seed value="1103291464"/>
    </random_number>

    <gui_only>
        <gui-settings-file value="./Project/viewsettings.xml"/>
        <quit-on-end value="true"/>
        <start value="true"/>
    </gui_only>

</configuration>
-->

<e3Detector xmlns:xsi="http://www.w3.org/2001/XMLSchema-instance" xsi:noNamespaceSchemaLocation="http://sumo.dlr.de/xsd/det_e3_file.xsd">
   <interval begin="0.00" end="60.00" id="multi_eval" meanTravelTime="-1.00" meanOverlapTravelTime="-1.00" meanSpeed="-1.00" meanHaltsPerVehicle="-1.00" meanTimeLoss="-1.00" vehicleSum="0" meanSpeedWithin="19.05" meanHaltsPerVehicleWithin="0.00" meanDurationWithin="20.34" vehicleSumWithin="38" meanIntervalSpeedWithin="19.05" meanIntervalHaltsPerVehicleWithin="0.00" meanIntervalDurationWithin="20.34" meanTimeLossWithin="1.07"/>
   <interval begin="60.00" end="120.00" id="multi_eval" meanTravelTime="-1.00" meanOverlapTravelTime="-1.00" meanSpeed="-1.00" meanHaltsPerVehicle="-1.00" meanTimeLoss="-1.00" vehicleSum="0" meanSpeedWithin="18.41" meanHaltsPerVehicleWithin="0.00" meanDurationWithin="46.86" vehicleSumWithin="114" meanIntervalSpeedWithin="18.42" meanIntervalHaltsPerVehicleWithin="0.00" meanIntervalDurationWithin="40.06" meanTimeLossWithin="3.45"/>
   <interval begin="120.00" end="180.00" id="multi_eval" meanTravelTime="120.90" meanOverlapTravelTime="121.14" meanSpeed="19.96" meanHaltsPerVehicle="0.00" meanTimeLoss="6.71" vehicleSum="33" meanSpeedWithin="17.61" meanHaltsPerVehicleWithin="0.00" meanDurationWithin="61.41" vehicleSumWithin="162" meanIntervalSpeedWithin="17.66" meanIntervalHaltsPerVehicleWithin="0.00" meanIntervalDurationWithin="45.28" meanTimeLossWithin="5.72"/>
   <interval begin="180.00" end="240.00" id="multi_eval" meanTravelTime="126.93" meanOverlapTravelTime="127.18" meanSpeed="18.20" meanHaltsPerVehicle="0.00" meanTimeLoss="12.88" vehicleSum="61" meanSpeedWithin="17.14" meanHaltsPerVehicleWithin="0.01" meanDurationWithin="69.81" vehicleSumWithin="177" meanIntervalSpeedWithin="17.09" meanIntervalHaltsPerVehicleWithin="0.01" meanIntervalDurationWithin="47.70" meanTimeLossWithin="7.98"/>
   <interval begin="240.00" end="300.00" id="multi_eval" meanTravelTime="134.04" meanOverlapTravelTime="134.30" meanSpeed="17.84" meanHaltsPerVehicle="0.01" meanTimeLoss="20.81" vehicleSum="76" meanSpeedWithin="17.21" meanHaltsPerVehicleWithin="0.00" meanDurationWithin="71.01" vehicleSumWithin="177" meanIntervalSpeedWithin="17.26" meanIntervalHaltsPerVehicleWithin="0.00" meanIntervalDurationWithin="47.63" meanTimeLossWithin="7.39"/>
   <interval begin="300.00" end="360.00" id="multi_eval" meanTravelTime="139.30" meanOverlapTravelTime="139.57" meanSpeed="16.75" meanHaltsPerVehicle="0.00" meanTimeLoss="22.84" vehicleSum="78" meanSpeedWithin="16.11" meanHaltsPerVehicleWithin="0.00" meanDurationWithin="70.13" vehicleSumWithin="175" meanIntervalSpeedWithin="15.92" meanIntervalHaltsPerVehicleWithin="0.00" meanIntervalDurationWithin="47.11" meanTimeLossWithin="6.19"/>
   <interval begin="360.00" end="420.00" id="multi_eval" meanTravelTime="140.67" meanOverlapTravelTime="140.93" meanSpeed="16.83" meanHaltsPerVehicle="0.00" meanTimeLoss="19.93" vehicleSum="73" meanSpeedWithin="15.80" meanHaltsPerVehicleWithin="0.00" meanDurationWithin="71.04" vehicleSumWithin="179" meanIntervalSpeedWithin="15.81" meanIntervalHaltsPerVehicleWithin="0.00" meanIntervalDurationWithin="47.53" meanTimeLossWithin="6.59"/>
   <interval begin="420.00" end="480.00" id="multi_eval" meanTravelTime="141.54" meanOverlapTravelTime="141.80" meanSpeed="16.35" meanHaltsPerVehicle="0.00" meanTimeLoss="17.93" vehicleSum="65" meanSpeedWithin="15.61" meanHaltsPerVehicleWithin="0.00" meanDurationWithin="75.42" vehicleSumWithin="194" meanIntervalSpeedWithin="15.68" meanIntervalHaltsPerVehicleWithin="0.00" meanIntervalDurationWithin="48.27" meanTimeLossWithin="7.30"/>
   <interval begin="480.00" end="540.00" id="multi_eval" meanTravelTime="148.69" meanOverlapTravelTime="148.95" meanSpeed="16.16" meanHaltsPerVehicle="0.01" meanTimeLoss="23.11" vehicleSum="80" meanSpeedWithin="16.51" meanHaltsPerVehicleWithin="0.03" meanDurationWithin="74.41" vehicleSumWithin="193" meanIntervalSpeedWithin="16.72" meanIntervalHaltsPerVehicleWithin="0.03" meanIntervalDurationWithin="48.00" meanTimeLossWithin="8.99"/>
   <interval begin="540.00" end="600.00" id="multi_eval" meanTravelTime="147.18" meanOverlapTravelTime="147.44" meanSpeed="16.00" meanHaltsPerVehicle="0.10" meanTimeLoss="29.15" vehicleSum="80" meanSpeedWithin="17.20" meanHaltsPerVehicleWithin="0.00" meanDurationWithin="74.50" vehicleSumWithin="189" meanIntervalSpeedWithin="17.20" meanIntervalHaltsPerVehicleWithin="0.00" meanIntervalDurationWithin="47.99" meanTimeLossWithin="7.44"/>
   <interval begin="600.00" end="660.00" id="multi_eval" meanTravelTime="142.80" meanOverlapTravelTime="143.07" meanSpeed="16.67" meanHaltsPerVehicle="0.00" meanTimeLoss="27.22" vehicleSum="87" meanSpeedWithin="17.39" meanHaltsPerVehicleWithin="0.00" meanDurationWithin="71.28" vehicleSumWithin="178" meanIntervalSpeedWithin="17.26" meanIntervalHaltsPerVehicleWithin="0.00" meanIntervalDurationWithin="47.87" meanTimeLossWithin="7.44"/>
</e3Detector>
